%nprocs=32
%mem=64GB
%chk=37benzene.chk
# opt B3LYP/6-311G freq SCF=maxcycle=256

Title Card Required

0 1
 C                 21.76000000   21.38200000   83.06400000
 C                 19.63100000   22.62900000   83.13600000
 C                 17.50200000   23.87500000   83.20800000
 C                 15.37200000   25.12200000   83.28000000
 C                 21.74700000   18.91400000   83.08000000
 C                 19.61700000   20.16100000   83.15200000
 C                 22.46500000   20.14400000   83.04500000
 C                 17.48800000   21.40700000   83.22400000
 C                 20.33600000   21.39100000   83.11700000
 C                 15.35900000   22.65300000   83.29600000
 C                 18.20700000   22.63700000   83.18900000
 C                 13.22900000   23.90000000   83.36800000
 C                 16.07700000   23.88300000   83.26200000
 C                 13.94800000   25.13000000   83.33400000
 C                 21.73300000   16.44600000   83.09500000
 C                 19.60400000   17.69200000   83.16700000
 C                 22.45200000   17.67600000   83.06100000
 C                 17.47400000   18.93900000   83.23900000
 C                 20.32200000   18.92200000   83.13300000
 C                 15.34500000   20.18500000   83.31200000
 C                 18.19300000   20.16900000   83.20500000
 C                 13.21600000   21.43200000   83.38400000
 C                 16.06400000   21.41500000   83.27700000
 C                 11.08600000   22.67800000   83.45600000
 C                 13.93500000   22.66200000   83.34900000
 C                 11.80500000   23.90800000   83.42200000
 C                 21.71900000   13.97800000   83.11100000
 C                 19.59000000   15.22400000   83.18300000
 C                 22.43800000   15.20800000   83.07600000
 C                 17.46100000   16.47100000   83.25500000
 C                 20.30900000   16.45400000   83.14800000
 C                 15.33100000   17.71700000   83.32700000
 C                 18.18000000   17.70100000   83.22100000
 C                 13.20200000   18.96300000   83.39900000
 C                 16.05000000   18.94700000   83.29300000
 C                 11.07300000   20.21000000   83.47100000
 C                 13.92100000   20.19300000   83.36500000
 C                  8.94300000   21.45600000   83.54400000
 C                 11.79200000   21.44000000   83.43700000
 C                  9.66200000   22.68600000   83.50900000
 C                 21.70600000   11.50900000   83.12600000
 C                 19.57600000   12.75600000   83.19800000
 C                 22.42500000   12.73900000   83.09200000
 C                 17.44700000   14.00200000   83.27100000
 C                 20.29500000   13.98600000   83.16400000
 C                 15.31800000   15.24900000   83.34300000
 C                 18.16600000   15.23200000   83.23600000
 C                 13.18800000   16.49500000   83.41500000
 C                 16.03700000   16.47900000   83.30800000
 C                 11.05900000   17.74100000   83.48700000
 C                 13.90700000   17.72500000   83.38000000
 C                  8.93000000   18.98800000   83.55900000
 C                 11.77800000   18.97200000   83.45300000
 C                  6.80000000   20.23400000   83.63100000
 C                  9.64900000   20.21800000   83.52500000
 C                  7.51900000   21.46400000   83.59700000
 C                 19.56300000   10.28800000   83.21400000
 C                 17.43400000   11.53400000   83.28600000
 C                 20.28200000   11.51800000   83.18000000
 C                 15.30400000   12.78000000   83.35800000
 C                 18.15200000   12.76400000   83.25200000
 C                 13.17500000   14.02700000   83.43000000
 C                 16.02300000   14.01000000   83.32400000
 C                 11.04600000   15.27300000   83.50300000
 C                 13.89400000   15.25700000   83.39600000
 C                  8.91600000   16.52000000   83.57500000
 C                 11.76400000   16.50300000   83.46800000
 C                  6.78700000   17.76600000   83.64700000
 C                  9.63500000   17.75000000   83.54000000
 C                  7.50600000   18.99600000   83.61300000
 C                 17.42000000    9.06600000   83.30200000
 C                 15.29100000   10.31200000   83.37400000
 C                 18.13900000   10.29600000   83.26700000
 C                 13.16100000   11.55900000   83.44600000
 C                 16.00900000   11.54200000   83.33900000
 C                 11.03200000   12.80500000   83.51800000
 C                 13.88000000   12.78900000   83.41200000
 C                  8.90300000   14.05100000   83.59000000
 C                 11.75100000   14.03500000   83.48400000
 C                  6.77300000   15.29800000   83.66300000
 C                  9.62100000   15.28100000   83.55600000
 C                  7.49200000   16.52800000   83.62800000
 C                 15.27700000    7.84400000   83.38900000
 C                 13.14800000    9.09000000   83.46200000
 C                 15.99600000    9.07400000   83.35500000
 C                 11.01800000   10.33700000   83.53400000
 C                 13.86700000   10.32000000   83.42700000
 C                  8.88900000   11.58300000   83.60600000
 C                 11.73700000   11.56700000   83.49900000
 C                  6.76000000   12.82900000   83.67800000
 C                  9.60800000   12.81300000   83.57200000
 C                  7.47900000   14.06000000   83.64400000
 C                 13.85300000    7.85200000   83.44300000
 C                 11.72400000    9.09800000   83.51500000
 C                  9.59400000   10.34500000   83.58700000
 C                  7.46500000   11.59100000   83.65900000
 H                 22.26600000   22.29900000   83.02400000
 H                 20.15900000   23.54600000   83.09800000
 H                 18.05400000   24.83700000   83.17600000
 H                 15.92300000   26.03800000   83.24300000
 H                 23.54500000   20.13700000   83.00400000
 H                 13.42900000   26.07300000   83.35100000
 H                 23.54400000   17.62500000   83.01000000
 H                 11.28600000   24.87400000   83.44100000
 H                 23.53100000   15.20200000   83.02800000
 H                  9.11800000   23.56100000   83.51700000
 H                 22.24900000   10.58700000   83.11300000
 H                 23.49400000   12.68900000   83.03900000
 H                  5.72900000   20.23900000   83.68000000
 H                  6.95300000   22.36300000   83.60500000
 H                 20.10600000    9.36600000   83.20200000
 H                  5.69400000   17.79500000   83.69600000
 H                 17.97600000    8.13700000   83.29200000
 H                  5.68000000   15.32700000   83.71300000
 H                 15.84100000    6.92600000   83.37900000
 H                  5.68900000   12.78700000   83.72400000
 H                 13.30200000    6.93600000   83.47900000
 H                 11.21900000    8.15800000   83.55300000
 H                  9.08900000    9.40500000   83.62500000
 H                  6.98200000   10.65000000   83.70000000





