%nprocs=32
%chk=C60.chk
# opt B3LYP/6-311G freq 

Title Card Required

0 1
 C                 -1.75998018   -2.57396101   -0.30757508
 C                 -0.29609118   -2.57396101   -0.30757508
 C                  0.39619782   -1.37476301   -0.30757508
 C                 -0.33578418   -0.10700501   -0.30759408
 C                 -1.72045218   -0.10703701   -0.30757008
 C                 -2.45235818   -1.37483201   -0.30755408
 C                 -2.21236018   -3.68034601   -1.15271808
 C                 -1.02807418   -4.36409801   -1.67508808
 C                  0.15628582   -3.68030601   -1.15276208
 C                  1.27645682   -3.52760501   -1.95225208
 C                  1.58045282   -1.21334001   -1.15282508
 C                  0.39610182    0.83791899   -1.15284008
 C                 -0.29630118    1.73169699   -1.95227708
 C                 -1.76019418    1.73167399   -1.95222308
 C                 -2.45246018    0.83786999   -1.15272908
 C                 -3.63678218    0.15406299   -1.67502908
 C                 -3.63672018   -1.21345401   -1.15267708
 C                 -4.06462618   -2.25995401   -1.95208208
 C                 -3.33262918   -3.52771301   -1.95210408
 C                 -1.02812618   -4.85820301   -2.96859408
 C                 -2.21245218   -4.69683501   -3.81371908
 C                 -3.33266618   -4.05007701   -3.31961108
 C                 -4.06468018   -3.10516901   -4.16477808
 C                 -4.51705018   -1.99881701   -3.31958508
 C                 -4.51710218   -0.70529901   -3.81368308
 C                 -4.06473618    0.40107599   -2.96853208
 C                 -3.33285118    1.34603899   -3.81376608
 C                 -2.21262418    1.99284199   -3.31974808
 C                  1.58039182    0.15419399   -1.67521208
 C                  0.15595582    0.97637899   -5.98083308
 C                  1.27622582    0.82375699   -5.18146108
 C                  2.00819882   -0.44399401   -5.18145508
 C                  1.58029682   -1.49048901   -5.98088108
 C                  0.39596682   -1.32911001   -6.82601208
 C                 -1.76031618   -0.13000501   -6.82594708
 C                 -2.21268518    0.97635399   -5.98076208
 C                 -1.02837618    1.66015499   -5.45846108
 C                 -1.02833918    2.15425299   -4.16495308
 C                  0.15601982    1.99285799   -3.31978808
 C                  1.27624582    1.34612099   -3.81390208
 C                  2.46059382   -0.70514401   -3.81394808
 C                  2.46065082   -1.99863401   -3.31983808
 C                  2.00825782   -3.10503501   -4.16497708
 C                  1.58032982   -2.85801401   -5.45849708
 C                  0.39604582   -3.54181001   -5.98080508
 C                 -0.33595618   -2.59691001   -6.82595808
 C                 -1.72062618   -2.59692601   -6.82590208
 C                 -2.45261318   -1.32917601   -6.82590708
 C                 -3.33288618    0.82366099   -5.18127908
 C                 -4.06478518   -0.44413201   -5.18123308
 C                 -3.63690018   -1.49060801   -5.98067808
 C                 -3.63684518   -2.85813601   -5.45831408
 C                 -2.45251818   -3.54187901   -5.98070108
 C                 -1.76013018   -4.43565801   -5.18129008
 C                 -0.29623718   -4.43563201   -5.18132208
 C                  0.15617782   -4.69676401   -3.81384008
 C                  1.27639882   -4.04996501   -3.31979908
 C                  2.00822082    0.40123799   -2.96875908
 C                  2.00833582   -2.25980401   -1.95227408
 C                 -0.29640818   -0.12996701   -6.82597908

 
 
 
 
 